<?xml version="1.0"?>

<routes xmlns:xsi="http://www.w3.org/2001/XMLSchema-instance" xsi:noNamespaceSchemaLocation="http://sumo.dlr.de/xsd/routes_file.xsd">

<vType id="type1" color="255,105,180"/>
<vType id="type0" color="0,255,255"/>

<route id="0" edges="8949170 -52016249"/> 
<route id="1" edges="8949170 164126513"/> 
<route id="2" edges="8949170 164126511"/> 
<route id="3" edges="-164126513 164126511"/> 
<route id="4" edges="-164126513 -8949170"/> 
<route id="5" edges="-164126513 -52016249"/> 
<route id="6" edges="52016249 164126513"/> 
<route id="7" edges="52016249 164126511"/> 
<route id="8" edges="52016249 -8949170"/> 
<route id="9" edges="-164126511 -8949170"/> 
<route id="10" edges="-164126511 -52016249"/> 
<route id="11" edges="-164126511 164126513"/> 

<vehicle id="0" depart="0.0" route="0" type="type0"/>
<vehicle id="1" depart="0.0" route="1" type="type0"/>
<vehicle id="2" depart="0.0" route="10" type="type0"/>
<vehicle id="3" depart="0.0" route="11" type="type0"/>
<vehicle id="4" depart="0.0" route="2" type="type0"/>
<vehicle id="5" depart="0.0" route="3" type="type0"/>
<vehicle id="6" depart="0.0" route="4" type="type0"/>
<vehicle id="7" depart="0.0" route="5" type="type0"/>
<vehicle id="8" depart="0.0" route="6" type="type1"/>
<vehicle id="9" depart="0.0" route="7" type="type0"/>
<vehicle id="10" depart="0.0" route="8" type="type0"/>
<vehicle id="11" depart="0.0" route="9" type="type0"/>
<vehicle id="12" depart="7.48" route="8" type="type0"/>
<vehicle id="13" depart="14.74" route="6" type="type0"/>
<vehicle id="14" depart="21.09" route="4" type="type1"/>
<vehicle id="15" depart="36.25" route="9" type="type0"/>
<vehicle id="16" depart="48.32" route="4" type="type1"/>
<vehicle id="17" depart="53.27" route="3" type="type0"/>
<vehicle id="18" depart="54.03" route="9" type="type1"/>
<vehicle id="19" depart="57.03" route="6" type="type0"/>
<vehicle id="20" depart="64.52" route="7" type="type0"/>
<vehicle id="21" depart="64.76" route="2" type="type1"/>
<vehicle id="22" depart="66.32" route="2" type="type0"/>
<vehicle id="23" depart="69.88" route="9" type="type0"/>
<vehicle id="24" depart="74.84" route="10" type="type0"/>
<vehicle id="25" depart="77.27" route="5" type="type0"/>
<vehicle id="26" depart="77.31" route="3" type="type0"/>
<vehicle id="27" depart="84.44" route="10" type="type0"/>
<vehicle id="28" depart="84.61" route="8" type="type0"/>
<vehicle id="29" depart="90.99" route="4" type="type0"/>
<vehicle id="30" depart="92.38" route="5" type="type0"/>
<vehicle id="31" depart="93.37" route="11" type="type0"/>
<vehicle id="32" depart="95.54" route="7" type="type1"/>
<vehicle id="33" depart="99.56" route="2" type="type1"/>
<vehicle id="34" depart="113.79" route="7" type="type0"/>
<vehicle id="35" depart="115.64" route="10" type="type0"/>
<vehicle id="36" depart="123.34" route="10" type="type0"/>
<vehicle id="37" depart="123.48" route="7" type="type0"/>
<vehicle id="38" depart="130.94" route="3" type="type1"/>
<vehicle id="39" depart="147.92" route="10" type="type1"/>
<vehicle id="40" depart="154.67" route="11" type="type0"/>
<vehicle id="41" depart="155.78" route="10" type="type0"/>
<vehicle id="42" depart="157.89" route="8" type="type1"/>
<vehicle id="43" depart="168.44" route="11" type="type1"/>
<vehicle id="44" depart="176.62" route="8" type="type0"/>
<vehicle id="45" depart="183.11" route="2" type="type0"/>
<vehicle id="46" depart="183.98" route="7" type="type0"/>
<vehicle id="47" depart="195.31" route="2" type="type0"/>
<vehicle id="48" depart="197.91" route="10" type="type0"/>
<vehicle id="49" depart="202.1" route="4" type="type0"/>
<vehicle id="50" depart="210.59" route="4" type="type1"/>
<vehicle id="51" depart="214.58" route="1" type="type0"/>
<vehicle id="52" depart="218.46" route="8" type="type1"/>
<vehicle id="53" depart="219.74" route="6" type="type1"/>
<vehicle id="54" depart="222.43" route="7" type="type1"/>
<vehicle id="55" depart="228.41" route="1" type="type0"/>
<vehicle id="56" depart="229.98" route="0" type="type0"/>
<vehicle id="57" depart="239.46" route="3" type="type0"/>
<vehicle id="58" depart="250.31" route="10" type="type1"/>
<vehicle id="59" depart="262.69" route="7" type="type0"/>
<vehicle id="60" depart="265.28" route="7" type="type1"/>
<vehicle id="61" depart="267.36" route="10" type="type0"/>
<vehicle id="62" depart="272.58" route="7" type="type0"/>
<vehicle id="63" depart="274.9" route="11" type="type0"/>
<vehicle id="64" depart="287.87" route="5" type="type0"/>
<vehicle id="65" depart="290.55" route="1" type="type0"/>
<vehicle id="66" depart="294.62" route="7" type="type0"/>
<vehicle id="67" depart="300.56" route="11" type="type1"/>
<vehicle id="68" depart="301.15" route="3" type="type0"/>
<vehicle id="69" depart="306.8" route="10" type="type0"/>
<vehicle id="70" depart="307.58" route="0" type="type0"/>
<vehicle id="71" depart="309.38" route="2" type="type0"/>
<vehicle id="72" depart="310.34" route="1" type="type0"/>
<vehicle id="73" depart="314.99" route="10" type="type0"/>
<vehicle id="74" depart="317.83" route="3" type="type1"/>
<vehicle id="75" depart="318.86" route="2" type="type1"/>
<vehicle id="76" depart="322.26" route="1" type="type0"/>
<vehicle id="77" depart="329.84" route="5" type="type1"/>
<vehicle id="78" depart="363.4" route="5" type="type1"/>
<vehicle id="79" depart="366.84" route="1" type="type0"/>
<vehicle id="80" depart="369.12" route="7" type="type0"/>
<vehicle id="81" depart="391.15" route="4" type="type1"/>
<vehicle id="82" depart="406.25" route="4" type="type0"/>
<vehicle id="83" depart="410.08" route="5" type="type0"/>
<vehicle id="84" depart="411.49" route="3" type="type0"/>
<vehicle id="85" depart="423.9" route="10" type="type1"/>
<vehicle id="86" depart="428.62" route="5" type="type1"/>
<vehicle id="87" depart="431.22" route="1" type="type0"/>
<vehicle id="88" depart="431.29" route="9" type="type0"/>
<vehicle id="89" depart="439.55" route="3" type="type0"/>
<vehicle id="90" depart="447.41" route="6" type="type0"/>
<vehicle id="91" depart="455.14" route="4" type="type1"/>
<vehicle id="92" depart="455.26" route="2" type="type0"/>
<vehicle id="93" depart="474.99" route="4" type="type1"/>
<vehicle id="94" depart="475.24" route="4" type="type0"/>
<vehicle id="95" depart="476.68" route="2" type="type0"/>
<vehicle id="96" depart="476.96" route="11" type="type1"/>
<vehicle id="97" depart="478.14" route="0" type="type0"/>
<vehicle id="98" depart="482.39" route="2" type="type1"/>
<vehicle id="99" depart="486.41" route="11" type="type0"/>
<vehicle id="100" depart="489.7" route="8" type="type0"/>
<vehicle id="101" depart="493.03" route="1" type="type1"/>
<vehicle id="102" depart="502.68" route="10" type="type0"/>
<vehicle id="103" depart="521.61" route="6" type="type0"/>
<vehicle id="104" depart="531.98" route="4" type="type0"/>
<vehicle id="105" depart="542.28" route="8" type="type0"/>
<vehicle id="106" depart="545.86" route="10" type="type1"/>
<vehicle id="107" depart="547.58" route="1" type="type1"/>
<vehicle id="108" depart="548.73" route="1" type="type0"/>
<vehicle id="109" depart="557.32" route="6" type="type0"/>
<vehicle id="110" depart="562.55" route="2" type="type0"/>
<vehicle id="111" depart="568.25" route="3" type="type1"/>
<vehicle id="112" depart="569.56" route="5" type="type0"/>
<vehicle id="113" depart="573.06" route="1" type="type1"/>
<vehicle id="114" depart="584.47" route="5" type="type0"/>
<vehicle id="115" depart="598.38" route="11" type="type0"/>
<vehicle id="116" depart="618.11" route="2" type="type1"/>
<vehicle id="117" depart="629.11" route="0" type="type0"/>
<vehicle id="118" depart="631.11" route="4" type="type1"/>
<vehicle id="119" depart="635.44" route="10" type="type0"/>
<vehicle id="120" depart="643.56" route="3" type="type0"/>
<vehicle id="121" depart="651.83" route="9" type="type0"/>
<vehicle id="122" depart="653.69" route="11" type="type1"/>
<vehicle id="123" depart="657.74" route="11" type="type1"/>
<vehicle id="124" depart="662.21" route="11" type="type0"/>
<vehicle id="125" depart="668.61" route="3" type="type1"/>
<vehicle id="126" depart="681.72" route="7" type="type0"/>
<vehicle id="127" depart="684.18" route="10" type="type1"/>
<vehicle id="128" depart="695.51" route="4" type="type0"/>
<vehicle id="129" depart="696.17" route="8" type="type1"/>
<vehicle id="130" depart="696.99" route="2" type="type1"/>
<vehicle id="131" depart="699.73" route="4" type="type0"/>
<vehicle id="132" depart="701.72" route="9" type="type1"/>
<vehicle id="133" depart="705.38" route="9" type="type1"/>
<vehicle id="134" depart="706.52" route="10" type="type1"/>
<vehicle id="135" depart="716.79" route="11" type="type0"/>
<vehicle id="136" depart="720.42" route="3" type="type0"/>
<vehicle id="137" depart="722.41" route="2" type="type1"/>
<vehicle id="138" depart="723.82" route="3" type="type1"/>
<vehicle id="139" depart="724.67" route="2" type="type0"/>
<vehicle id="140" depart="737.55" route="11" type="type0"/>
<vehicle id="141" depart="745.0" route="8" type="type0"/>
<vehicle id="142" depart="750.89" route="11" type="type0"/>
<vehicle id="143" depart="752.44" route="3" type="type1"/>
<vehicle id="144" depart="762.37" route="6" type="type0"/>
<vehicle id="145" depart="767.9" route="5" type="type1"/>
<vehicle id="146" depart="771.82" route="5" type="type1"/>
<vehicle id="147" depart="772.78" route="3" type="type0"/>
<vehicle id="148" depart="787.85" route="2" type="type0"/>
<vehicle id="149" depart="793.29" route="6" type="type0"/>
<vehicle id="150" depart="799.52" route="9" type="type0"/>
<vehicle id="151" depart="800.3" route="7" type="type0"/>
<vehicle id="152" depart="805.41" route="4" type="type1"/>
<vehicle id="153" depart="807.37" route="6" type="type0"/>
<vehicle id="154" depart="808.83" route="11" type="type0"/>
<vehicle id="155" depart="810.81" route="3" type="type0"/>
<vehicle id="156" depart="813.79" route="5" type="type0"/>
<vehicle id="157" depart="817.23" route="10" type="type0"/>
<vehicle id="158" depart="824.54" route="7" type="type1"/>
<vehicle id="159" depart="824.69" route="10" type="type0"/>
<vehicle id="160" depart="834.48" route="4" type="type0"/>
<vehicle id="161" depart="838.33" route="6" type="type1"/>
<vehicle id="162" depart="839.03" route="6" type="type0"/>
<vehicle id="163" depart="842.49" route="11" type="type0"/>
<vehicle id="164" depart="846.71" route="6" type="type0"/>
<vehicle id="165" depart="855.33" route="10" type="type0"/>
<vehicle id="166" depart="859.38" route="3" type="type0"/>
<vehicle id="167" depart="859.62" route="5" type="type0"/>
<vehicle id="168" depart="862.13" route="8" type="type1"/>
<vehicle id="169" depart="865.87" route="11" type="type0"/>
<vehicle id="170" depart="868.76" route="11" type="type0"/>
<vehicle id="171" depart="872.12" route="4" type="type0"/>
<vehicle id="172" depart="880.96" route="3" type="type0"/>
<vehicle id="173" depart="922.72" route="3" type="type1"/>
<vehicle id="174" depart="926.08" route="4" type="type1"/>
<vehicle id="175" depart="928.82" route="7" type="type1"/>
<vehicle id="176" depart="937.27" route="4" type="type1"/>
<vehicle id="177" depart="938.79" route="10" type="type0"/>
<vehicle id="178" depart="941.97" route="5" type="type0"/>
<vehicle id="179" depart="944.43" route="0" type="type0"/>
<vehicle id="180" depart="948.68" route="1" type="type0"/>
<vehicle id="181" depart="954.65" route="1" type="type1"/>
<vehicle id="182" depart="956.57" route="0" type="type0"/>
<vehicle id="183" depart="963.55" route="1" type="type0"/>
<vehicle id="184" depart="964.37" route="10" type="type0"/>
<vehicle id="185" depart="969.71" route="9" type="type0"/>
<vehicle id="186" depart="977.57" route="6" type="type0"/>
<vehicle id="187" depart="981.54" route="7" type="type0"/>
<vehicle id="188" depart="987.86" route="8" type="type1"/>
<vehicle id="189" depart="991.9" route="6" type="type1"/>
<vehicle id="190" depart="993.64" route="11" type="type1"/>
<vehicle id="191" depart="995.13" route="11" type="type0"/>
<vehicle id="192" depart="1007.49" route="11" type="type0"/>
<vehicle id="193" depart="1016.35" route="0" type="type0"/>
<vehicle id="194" depart="1021.99" route="3" type="type0"/>
<vehicle id="195" depart="1028.42" route="2" type="type0"/>
<vehicle id="196" depart="1036.57" route="10" type="type0"/>
<vehicle id="197" depart="1038.0" route="8" type="type0"/>
<vehicle id="198" depart="1038.78" route="8" type="type0"/>
<vehicle id="199" depart="1041.84" route="2" type="type0"/>
<vehicle id="200" depart="1043.75" route="2" type="type0"/>
<vehicle id="201" depart="1045.74" route="0" type="type0"/>
<vehicle id="202" depart="1046.85" route="1" type="type0"/>
<vehicle id="203" depart="1048.27" route="1" type="type1"/>
<vehicle id="204" depart="1050.05" route="0" type="type0"/>
<vehicle id="205" depart="1055.08" route="10" type="type0"/>
<vehicle id="206" depart="1057.38" route="6" type="type0"/>
<vehicle id="207" depart="1065.78" route="0" type="type0"/>
<vehicle id="208" depart="1065.94" route="11" type="type0"/>
<vehicle id="209" depart="1074.09" route="1" type="type1"/>
<vehicle id="210" depart="1079.01" route="8" type="type0"/>
<vehicle id="211" depart="1079.25" route="1" type="type1"/>
<vehicle id="212" depart="1083.04" route="5" type="type0"/>
<vehicle id="213" depart="1086.52" route="3" type="type0"/>
<vehicle id="214" depart="1098.44" route="1" type="type1"/>
<vehicle id="215" depart="1104.15" route="11" type="type0"/>
<vehicle id="216" depart="1108.87" route="2" type="type1"/>
<vehicle id="217" depart="1113.23" route="5" type="type0"/>
<vehicle id="218" depart="1119.49" route="2" type="type1"/>
<vehicle id="219" depart="1125.23" route="2" type="type0"/>
<vehicle id="220" depart="1130.27" route="10" type="type0"/>
<vehicle id="221" depart="1136.58" route="9" type="type0"/>
<vehicle id="222" depart="1141.03" route="9" type="type1"/>
<vehicle id="223" depart="1145.76" route="7" type="type0"/>
<vehicle id="224" depart="1146.32" route="5" type="type0"/>
<vehicle id="225" depart="1148.46" route="10" type="type0"/>
<vehicle id="226" depart="1156.12" route="0" type="type1"/>
<vehicle id="227" depart="1175.08" route="10" type="type0"/>
<vehicle id="228" depart="1179.62" route="4" type="type0"/>
<vehicle id="229" depart="1182.6" route="5" type="type0"/>
<vehicle id="230" depart="1184.16" route="11" type="type1"/>
<vehicle id="231" depart="1184.77" route="8" type="type0"/>
<vehicle id="232" depart="1184.96" route="7" type="type0"/>
<vehicle id="233" depart="1185.84" route="1" type="type0"/>
<vehicle id="234" depart="1191.86" route="4" type="type0"/>
<vehicle id="235" depart="1192.73" route="3" type="type1"/>
<vehicle id="236" depart="1200.17" route="9" type="type0"/>
<vehicle id="237" depart="1200.59" route="4" type="type0"/>
<vehicle id="238" depart="1201.1" route="5" type="type0"/>
<vehicle id="239" depart="1202.61" route="3" type="type1"/>
<vehicle id="240" depart="1210.05" route="2" type="type0"/>
<vehicle id="241" depart="1213.24" route="9" type="type0"/>
<vehicle id="242" depart="1216.46" route="7" type="type0"/>
<vehicle id="243" depart="1219.29" route="10" type="type1"/>
<vehicle id="244" depart="1220.3" route="4" type="type1"/>
<vehicle id="245" depart="1221.68" route="10" type="type1"/>
<vehicle id="246" depart="1227.79" route="3" type="type0"/>
<vehicle id="247" depart="1232.92" route="8" type="type1"/>
<vehicle id="248" depart="1237.52" route="1" type="type0"/>
<vehicle id="249" depart="1255.82" route="1" type="type1"/>
<vehicle id="250" depart="1258.94" route="6" type="type0"/>
<vehicle id="251" depart="1265.75" route="8" type="type1"/>
<vehicle id="252" depart="1272.64" route="8" type="type0"/>
<vehicle id="253" depart="1273.0" route="0" type="type1"/>
<vehicle id="254" depart="1285.29" route="8" type="type0"/>
<vehicle id="255" depart="1287.32" route="1" type="type0"/>
<vehicle id="256" depart="1295.21" route="1" type="type0"/>
<vehicle id="257" depart="1298.45" route="10" type="type0"/>
<vehicle id="258" depart="1298.86" route="4" type="type0"/>
<vehicle id="259" depart="1306.55" route="2" type="type1"/>
<vehicle id="260" depart="1313.96" route="11" type="type0"/>
<vehicle id="261" depart="1318.72" route="2" type="type1"/>
<vehicle id="262" depart="1321.24" route="6" type="type0"/>
<vehicle id="263" depart="1321.4" route="2" type="type0"/>
<vehicle id="264" depart="1326.67" route="2" type="type0"/>
<vehicle id="265" depart="1330.46" route="5" type="type0"/>
<vehicle id="266" depart="1330.52" route="9" type="type1"/>
<vehicle id="267" depart="1334.6" route="8" type="type0"/>
<vehicle id="268" depart="1339.04" route="4" type="type1"/>
<vehicle id="269" depart="1345.59" route="10" type="type0"/>
<vehicle id="270" depart="1348.38" route="11" type="type0"/>
<vehicle id="271" depart="1352.96" route="9" type="type0"/>
<vehicle id="272" depart="1361.46" route="8" type="type0"/>
<vehicle id="273" depart="1365.89" route="5" type="type0"/>
<vehicle id="274" depart="1380.5" route="11" type="type0"/>
<vehicle id="275" depart="1384.06" route="8" type="type0"/>
<vehicle id="276" depart="1404.24" route="2" type="type0"/>
<vehicle id="277" depart="1407.12" route="8" type="type0"/>
<vehicle id="278" depart="1408.35" route="0" type="type1"/>
<vehicle id="279" depart="1417.26" route="2" type="type0"/>
<vehicle id="280" depart="1418.22" route="8" type="type0"/>
<vehicle id="281" depart="1420.09" route="11" type="type0"/>
<vehicle id="282" depart="1420.29" route="8" type="type0"/>
<vehicle id="283" depart="1424.15" route="1" type="type0"/>
<vehicle id="284" depart="1431.44" route="5" type="type1"/>
<vehicle id="285" depart="1435.79" route="6" type="type1"/>
<vehicle id="286" depart="1438.13" route="11" type="type1"/>
<vehicle id="287" depart="1443.67" route="8" type="type0"/>
<vehicle id="288" depart="1448.64" route="5" type="type0"/>
<vehicle id="289" depart="1456.46" route="2" type="type0"/>
<vehicle id="290" depart="1458.28" route="11" type="type1"/>
<vehicle id="291" depart="1458.29" route="8" type="type0"/>
<vehicle id="292" depart="1458.72" route="2" type="type1"/>
<vehicle id="293" depart="1459.81" route="0" type="type0"/>
<vehicle id="294" depart="1460.17" route="11" type="type1"/>
<vehicle id="295" depart="1461.21" route="1" type="type0"/>
<vehicle id="296" depart="1466.1" route="1" type="type0"/>
<vehicle id="297" depart="1469.29" route="5" type="type1"/>
<vehicle id="298" depart="1470.84" route="5" type="type0"/>
<vehicle id="299" depart="1487.74" route="4" type="type0"/>
<vehicle id="300" depart="1501.17" route="5" type="type0"/>
<vehicle id="301" depart="1508.0" route="9" type="type0"/>
<vehicle id="302" depart="1511.11" route="10" type="type0"/>
<vehicle id="303" depart="1512.64" route="7" type="type0"/>
<vehicle id="304" depart="1514.34" route="3" type="type0"/>
<vehicle id="305" depart="1514.46" route="8" type="type0"/>
<vehicle id="306" depart="1518.67" route="5" type="type0"/>
<vehicle id="307" depart="1518.84" route="1" type="type0"/>
<vehicle id="308" depart="1525.81" route="8" type="type0"/>
<vehicle id="309" depart="1525.82" route="2" type="type1"/>
<vehicle id="310" depart="1527.57" route="10" type="type0"/>
<vehicle id="311" depart="1530.79" route="1" type="type1"/>
<vehicle id="312" depart="1533.05" route="5" type="type0"/>
<vehicle id="313" depart="1534.31" route="8" type="type1"/>
<vehicle id="314" depart="1562.78" route="10" type="type0"/>
<vehicle id="315" depart="1568.26" route="3" type="type1"/>
<vehicle id="316" depart="1572.32" route="9" type="type0"/>
<vehicle id="317" depart="1577.15" route="1" type="type1"/>
<vehicle id="318" depart="1582.49" route="8" type="type0"/>
<vehicle id="319" depart="1584.69" route="2" type="type1"/>
<vehicle id="320" depart="1586.71" route="11" type="type0"/>
<vehicle id="321" depart="1587.78" route="0" type="type0"/>
<vehicle id="322" depart="1588.65" route="2" type="type1"/>
<vehicle id="323" depart="1591.77" route="9" type="type1"/>
<vehicle id="324" depart="1596.99" route="0" type="type0"/>
<vehicle id="325" depart="1601.52" route="3" type="type0"/>
<vehicle id="326" depart="1624.32" route="9" type="type1"/>
<vehicle id="327" depart="1627.57" route="10" type="type0"/>
<vehicle id="328" depart="1633.99" route="3" type="type1"/>
<vehicle id="329" depart="1642.31" route="0" type="type0"/>
<vehicle id="330" depart="1648.14" route="0" type="type1"/>
<vehicle id="331" depart="1653.1" route="8" type="type0"/>
<vehicle id="332" depart="1656.83" route="6" type="type0"/>
<vehicle id="333" depart="1662.68" route="9" type="type0"/>
<vehicle id="334" depart="1665.76" route="8" type="type0"/>
<vehicle id="335" depart="1679.03" route="3" type="type0"/>
<vehicle id="336" depart="1685.6" route="2" type="type0"/>
<vehicle id="337" depart="1692.79" route="7" type="type0"/>
<vehicle id="338" depart="1695.28" route="1" type="type0"/>
<vehicle id="339" depart="1695.67" route="7" type="type0"/>
<vehicle id="340" depart="1696.78" route="6" type="type0"/>
<vehicle id="341" depart="1701.07" route="1" type="type0"/>
<vehicle id="342" depart="1707.3" route="3" type="type0"/>
<vehicle id="343" depart="1711.71" route="5" type="type0"/>
<vehicle id="344" depart="1714.77" route="6" type="type0"/>
<vehicle id="345" depart="1719.87" route="0" type="type0"/>
<vehicle id="346" depart="1723.12" route="11" type="type0"/>
<vehicle id="347" depart="1730.88" route="8" type="type0"/>
<vehicle id="348" depart="1746.96" route="2" type="type1"/>
<vehicle id="349" depart="1756.77" route="10" type="type0"/>
<vehicle id="350" depart="1758.27" route="3" type="type1"/>
<vehicle id="351" depart="1763.97" route="11" type="type1"/>
<vehicle id="352" depart="1765.94" route="7" type="type1"/>
<vehicle id="353" depart="1768.63" route="9" type="type0"/>
<vehicle id="354" depart="1780.63" route="2" type="type0"/>
<vehicle id="355" depart="1783.99" route="0" type="type0"/>
<vehicle id="356" depart="1785.72" route="0" type="type0"/>
<vehicle id="357" depart="1791.42" route="8" type="type0"/>
<vehicle id="358" depart="1799.86" route="7" type="type0"/>
<vehicle id="359" depart="1816.27" route="3" type="type0"/>
<vehicle id="360" depart="1825.38" route="6" type="type1"/>
<vehicle id="361" depart="1828.97" route="2" type="type1"/>
<vehicle id="362" depart="1832.56" route="8" type="type1"/>
<vehicle id="363" depart="1833.13" route="4" type="type0"/>
<vehicle id="364" depart="1849.55" route="0" type="type0"/>
<vehicle id="365" depart="1849.9" route="9" type="type0"/>
<vehicle id="366" depart="1854.27" route="8" type="type0"/>
<vehicle id="367" depart="1859.96" route="4" type="type0"/>
<vehicle id="368" depart="1863.06" route="7" type="type0"/>
<vehicle id="369" depart="1864.93" route="1" type="type0"/>
<vehicle id="370" depart="1875.92" route="9" type="type0"/>
<vehicle id="371" depart="1875.95" route="8" type="type1"/>
<vehicle id="372" depart="1885.37" route="11" type="type1"/>
<vehicle id="373" depart="1886.16" route="0" type="type0"/>
<vehicle id="374" depart="1886.57" route="1" type="type0"/>
<vehicle id="375" depart="1887.51" route="3" type="type0"/>
<vehicle id="376" depart="1889.58" route="10" type="type0"/>
<vehicle id="377" depart="1894.05" route="0" type="type0"/>
<vehicle id="378" depart="1900.65" route="2" type="type0"/>
<vehicle id="379" depart="1900.81" route="8" type="type0"/>
<vehicle id="380" depart="1902.31" route="0" type="type0"/>
<vehicle id="381" depart="1914.89" route="1" type="type1"/>
<vehicle id="382" depart="1920.71" route="6" type="type0"/>
<vehicle id="383" depart="1922.63" route="11" type="type0"/>
<vehicle id="384" depart="1924.32" route="0" type="type0"/>
<vehicle id="385" depart="1925.35" route="9" type="type0"/>
<vehicle id="386" depart="1937.29" route="5" type="type1"/>
<vehicle id="387" depart="1944.61" route="11" type="type0"/>
<vehicle id="388" depart="1950.96" route="1" type="type0"/>
<vehicle id="389" depart="1957.97" route="0" type="type1"/>
<vehicle id="390" depart="1967.39" route="3" type="type0"/>
<vehicle id="391" depart="1971.61" route="1" type="type1"/>
<vehicle id="392" depart="1983.22" route="10" type="type1"/>
<vehicle id="393" depart="1995.32" route="4" type="type0"/>
<vehicle id="394" depart="1995.91" route="10" type="type1"/>
<vehicle id="395" depart="2013.06" route="2" type="type0"/>
<vehicle id="396" depart="2021.59" route="9" type="type1"/>
<vehicle id="397" depart="2028.22" route="8" type="type0"/>
<vehicle id="398" depart="2034.62" route="11" type="type0"/>
<vehicle id="399" depart="2035.75" route="5" type="type1"/>
<vehicle id="400" depart="2036.15" route="9" type="type0"/>
<vehicle id="401" depart="2039.23" route="2" type="type0"/>
<vehicle id="402" depart="2039.8" route="0" type="type1"/>
<vehicle id="403" depart="2042.15" route="1" type="type0"/>
<vehicle id="404" depart="2049.53" route="0" type="type1"/>
<vehicle id="405" depart="2055.01" route="1" type="type1"/>
<vehicle id="406" depart="2065.89" route="3" type="type0"/>
<vehicle id="407" depart="2066.65" route="3" type="type1"/>
<vehicle id="408" depart="2075.79" route="9" type="type1"/>
<vehicle id="409" depart="2079.52" route="7" type="type0"/>
<vehicle id="410" depart="2081.53" route="8" type="type0"/>
<vehicle id="411" depart="2082.67" route="2" type="type0"/>
<vehicle id="412" depart="2085.35" route="6" type="type0"/>
<vehicle id="413" depart="2085.42" route="8" type="type0"/>
<vehicle id="414" depart="2097.61" route="10" type="type0"/>
<vehicle id="415" depart="2099.58" route="8" type="type0"/>
<vehicle id="416" depart="2102.01" route="3" type="type0"/>
<vehicle id="417" depart="2108.54" route="10" type="type0"/>
<vehicle id="418" depart="2120.53" route="4" type="type0"/>
<vehicle id="419" depart="2122.52" route="1" type="type1"/>
<vehicle id="420" depart="2128.44" route="8" type="type1"/>
<vehicle id="421" depart="2134.05" route="1" type="type1"/>
<vehicle id="422" depart="2139.91" route="1" type="type1"/>
<vehicle id="423" depart="2143.95" route="5" type="type0"/>
<vehicle id="424" depart="2151.26" route="11" type="type1"/>
<vehicle id="425" depart="2154.34" route="11" type="type0"/>
<vehicle id="426" depart="2164.61" route="0" type="type1"/>
<vehicle id="427" depart="2166.42" route="10" type="type0"/>
<vehicle id="428" depart="2176.65" route="10" type="type1"/>
<vehicle id="429" depart="2179.65" route="3" type="type0"/>
<vehicle id="430" depart="2184.09" route="2" type="type1"/>
<vehicle id="431" depart="2188.59" route="10" type="type0"/>
<vehicle id="432" depart="2195.47" route="6" type="type0"/>
<vehicle id="433" depart="2200.81" route="0" type="type0"/>
<vehicle id="434" depart="2202.13" route="9" type="type1"/>
<vehicle id="435" depart="2203.65" route="6" type="type0"/>
<vehicle id="436" depart="2203.96" route="3" type="type1"/>
<vehicle id="437" depart="2213.6" route="1" type="type0"/>
<vehicle id="438" depart="2214.39" route="11" type="type0"/>
<vehicle id="439" depart="2221.75" route="10" type="type0"/>
<vehicle id="440" depart="2221.88" route="6" type="type0"/>
<vehicle id="441" depart="2222.3" route="3" type="type0"/>
<vehicle id="442" depart="2222.52" route="2" type="type1"/>
<vehicle id="443" depart="2222.86" route="4" type="type0"/>
<vehicle id="444" depart="2230.56" route="10" type="type0"/>
<vehicle id="445" depart="2231.14" route="2" type="type1"/>
<vehicle id="446" depart="2233.94" route="2" type="type0"/>
<vehicle id="447" depart="2237.56" route="9" type="type0"/>
<vehicle id="448" depart="2240.28" route="11" type="type0"/>
<vehicle id="449" depart="2241.53" route="11" type="type0"/>
<vehicle id="450" depart="2244.78" route="1" type="type0"/>
<vehicle id="451" depart="2246.46" route="6" type="type0"/>
<vehicle id="452" depart="2249.95" route="1" type="type0"/>
<vehicle id="453" depart="2252.54" route="8" type="type0"/>
<vehicle id="454" depart="2265.54" route="10" type="type0"/>
<vehicle id="455" depart="2271.52" route="5" type="type1"/>
<vehicle id="456" depart="2274.21" route="2" type="type0"/>
<vehicle id="457" depart="2279.29" route="11" type="type0"/>
<vehicle id="458" depart="2282.15" route="11" type="type0"/>
<vehicle id="459" depart="2283.72" route="7" type="type0"/>
<vehicle id="460" depart="2295.47" route="3" type="type0"/>
<vehicle id="461" depart="2301.23" route="0" type="type1"/>
<vehicle id="462" depart="2318.86" route="5" type="type1"/>
<vehicle id="463" depart="2325.55" route="11" type="type1"/>
<vehicle id="464" depart="2326.07" route="7" type="type0"/>
<vehicle id="465" depart="2326.88" route="5" type="type1"/>
<vehicle id="466" depart="2328.92" route="7" type="type0"/>
<vehicle id="467" depart="2333.8" route="1" type="type0"/>
<vehicle id="468" depart="2334.03" route="3" type="type1"/>
<vehicle id="469" depart="2337.49" route="8" type="type0"/>
<vehicle id="470" depart="2338.2" route="2" type="type0"/>
<vehicle id="471" depart="2339.78" route="9" type="type1"/>
<vehicle id="472" depart="2341.89" route="8" type="type0"/>
<vehicle id="473" depart="2345.97" route="4" type="type1"/>
<vehicle id="474" depart="2348.77" route="8" type="type0"/>
<vehicle id="475" depart="2359.2" route="4" type="type0"/>
<vehicle id="476" depart="2363.82" route="5" type="type0"/>
<vehicle id="477" depart="2369.05" route="9" type="type0"/>
<vehicle id="478" depart="2370.91" route="0" type="type1"/>
<vehicle id="479" depart="2373.04" route="3" type="type1"/>
<vehicle id="480" depart="2381.52" route="9" type="type0"/>
<vehicle id="481" depart="2381.97" route="2" type="type0"/>
<vehicle id="482" depart="2391.07" route="3" type="type1"/>